#======================================================================

# CRYSTAL DATA

#----------------------------------------------------------------------

data_VESTA_phase_1


_chemical_name_common                  ''
_cell_length_a                         17.27150
_cell_length_b                         17.27150
_cell_length_c                         17.27150
_cell_angle_alpha                      90
_cell_angle_beta                       90
_cell_angle_gamma                      90
_space_group_name_H-M_alt              'P 1'
_space_group_IT_number                 1

loop_
_space_group_symop_operation_xyz
   'x, y, z'

loop_
   _atom_site_label
   _atom_site_occupancy
   _atom_site_fract_x
   _atom_site_fract_y
   _atom_site_fract_z
   _atom_site_adp_type
   _atom_site_B_iso_or_equiv
   _atom_site_type_symbol
   N1         1.0     0.914300      0.467700      0.184500     Biso  1.000000 N
   H2         1.0     0.930000      0.590000      0.105000     Biso  1.000000 H
   O1         1.0     0.885600      0.612900      0.051400     Biso  1.000000 O
   C2         1.0     0.860300      0.406300      0.189800     Biso  1.000000 C
   H1         1.0     0.862700      0.368000      0.229200     Biso  1.000000 H
   N1         1.0     0.414300      0.967700      0.684500     Biso  1.000000 N
   C2         1.0     0.360300      0.906300      0.689800     Biso  1.000000 C
   H1         1.0     0.362700      0.868000      0.729200     Biso  1.000000 H
   N1         1.0     0.085700      0.532300      0.184500     Biso  1.000000 N
   H2         1.0     0.070000      0.410000      0.105000     Biso  1.000000 H
   O1         1.0     0.114400      0.387100      0.051400     Biso  1.000000 O
   C2         1.0     0.139700      0.593700      0.189800     Biso  1.000000 C
   H1         1.0     0.137300      0.632000      0.229200     Biso  1.000000 H
   N1         1.0     0.585700      0.032300      0.684500     Biso  1.000000 N
   C2         1.0     0.639700      0.093700      0.689800     Biso  1.000000 C
   H1         1.0     0.637300      0.132000      0.729200     Biso  1.000000 H
   N1         1.0     0.085700      0.467700      0.815500     Biso  1.000000 N
   C2         1.0     0.139700      0.406300      0.810200     Biso  1.000000 C
   H1         1.0     0.137300      0.368000      0.770800     Biso  1.000000 H
   N1         1.0     0.585700      0.967700      0.315500     Biso  1.000000 N
   C2         1.0     0.639700      0.906300      0.310200     Biso  1.000000 C
   H1         1.0     0.637300      0.868000      0.270800     Biso  1.000000 H
   N1         1.0     0.914300      0.532300      0.815500     Biso  1.000000 N
   C2         1.0     0.860300      0.593700      0.810200     Biso  1.000000 C
   H1         1.0     0.862700      0.632000      0.770800     Biso  1.000000 H
   N1         1.0     0.414300      0.032300      0.315500     Biso  1.000000 N
   H2         1.0     0.430000      0.910000      0.395000     Biso  1.000000 H
   O1         1.0     0.385600      0.887100      0.448600     Biso  1.000000 O
   C2         1.0     0.360300      0.093700      0.310200     Biso  1.000000 C
   H1         1.0     0.362700      0.132000      0.270800     Biso  1.000000 H
   N1         1.0     0.184500      0.914300      0.467700     Biso  1.000000 N
   H2         1.0     0.105000      0.930000      0.590000     Biso  1.000000 H
   O1         1.0     0.051400      0.885600      0.612900     Biso  1.000000 O
   C2         1.0     0.189800      0.860300      0.406300     Biso  1.000000 C
   H1         1.0     0.229200      0.862700      0.368000     Biso  1.000000 H
   N1         1.0     0.684500      0.414300      0.967700     Biso  1.000000 N
   C2         1.0     0.689800      0.360300      0.906300     Biso  1.000000 C
   H1         1.0     0.729200      0.362700      0.868000     Biso  1.000000 H
   N1         1.0     0.184500      0.085700      0.532300     Biso  1.000000 N
   H2         1.0     0.105000      0.070000      0.410000     Biso  1.000000 H
   O1         1.0     0.051400      0.114400      0.387100     Biso  1.000000 O
   C2         1.0     0.189800      0.139700      0.593700     Biso  1.000000 C
   H1         1.0     0.229200      0.137300      0.632000     Biso  1.000000 H
   N1         1.0     0.684500      0.585700      0.032300     Biso  1.000000 N
   H2         1.0     0.605000      0.570000      0.910000     Biso  1.000000 H
   O1         1.0     0.551400      0.614400      0.887100     Biso  1.000000 O
   C2         1.0     0.689800      0.639700      0.093700     Biso  1.000000 C
   H1         1.0     0.729200      0.637300      0.132000     Biso  1.000000 H
   N1         1.0     0.815500      0.085700      0.467700     Biso  1.000000 N
   C2         1.0     0.810200      0.139700      0.406300     Biso  1.000000 C
   H1         1.0     0.770800      0.137300      0.368000     Biso  1.000000 H
   N1         1.0     0.315500      0.585700      0.967700     Biso  1.000000 N
   C2         1.0     0.310200      0.639700      0.906300     Biso  1.000000 C
   H1         1.0     0.270800      0.637300      0.868000     Biso  1.000000 H
   N1         1.0     0.815500      0.914300      0.532300     Biso  1.000000 N
   H2         1.0     0.895000      0.930000      0.410000     Biso  1.000000 H
   O1         1.0     0.948600      0.885600      0.387100     Biso  1.000000 O
   C2         1.0     0.810200      0.860300      0.593700     Biso  1.000000 C
   H1         1.0     0.770800      0.862700      0.632000     Biso  1.000000 H
   N1         1.0     0.315500      0.414300      0.032300     Biso  1.000000 N
   H2         1.0     0.395000      0.430000      0.910000     Biso  1.000000 H
   O1         1.0     0.448600      0.385600      0.887100     Biso  1.000000 O
   C2         1.0     0.310200      0.360300      0.093700     Biso  1.000000 C
   H1         1.0     0.270800      0.362700      0.132000     Biso  1.000000 H
   N1         1.0     0.467700      0.184500      0.914300     Biso  1.000000 N
   H2         1.0     0.593620      0.073480      0.890990     Biso  1.000000 H
   C2         1.0     0.406300      0.189800      0.860300     Biso  1.000000 C
   H1         1.0     0.368000      0.229200      0.862700     Biso  1.000000 H
   N1         1.0     0.967700      0.684500      0.414300     Biso  1.000000 N
   H2         1.0     0.090000      0.605000      0.430000     Biso  1.000000 H
   O1         1.0     0.112900      0.551400      0.385600     Biso  1.000000 O
   C2         1.0     0.906300      0.689800      0.360300     Biso  1.000000 C
   H1         1.0     0.868000      0.729200      0.362700     Biso  1.000000 H
   N1         1.0     0.532300      0.184500      0.085700     Biso  1.000000 N
   C2         1.0     0.593700      0.189800      0.139700     Biso  1.000000 C
   H1         1.0     0.632000      0.229200      0.137300     Biso  1.000000 H
   N1         1.0     0.032300      0.684500      0.585700     Biso  1.000000 N
   H2         1.0     0.910000      0.605000      0.570000     Biso  1.000000 H
   O1         1.0     0.887100      0.551400      0.614400     Biso  1.000000 O
   C2         1.0     0.093700      0.689800      0.639700     Biso  1.000000 C
   H1         1.0     0.132000      0.729200      0.637300     Biso  1.000000 H
   N1         1.0     0.467700      0.815500      0.085700     Biso  1.000000 N
   C2         1.0     0.406300      0.810200      0.139700     Biso  1.000000 C
   H1         1.0     0.368000      0.770800      0.137300     Biso  1.000000 H
   N1         1.0     0.967700      0.315500      0.585700     Biso  1.000000 N
   H2         1.0     0.090000      0.395000      0.570000     Biso  1.000000 H
   O1         1.0     0.112900      0.448600      0.614400     Biso  1.000000 O
   C2         1.0     0.906300      0.310200      0.639700     Biso  1.000000 C
   H1         1.0     0.868000      0.270800      0.637300     Biso  1.000000 H
   N1         1.0     0.532300      0.815500      0.914300     Biso  1.000000 N
   H2         1.0     0.410000      0.895000      0.930000     Biso  1.000000 H
   O1         1.0     0.387100      0.948600      0.885600     Biso  1.000000 O
   C2         1.0     0.593700      0.810200      0.860300     Biso  1.000000 C
   H1         1.0     0.632000      0.770800      0.862700     Biso  1.000000 H
   N1         1.0     0.032300      0.315500      0.414300     Biso  1.000000 N
   C2         1.0     0.093700      0.310200      0.360300     Biso  1.000000 C
   H1         1.0     0.132000      0.270800      0.362700     Biso  1.000000 H
   N1         1.0     0.467700      0.914300      0.184500     Biso  1.000000 N
   H2         1.0     0.590000      0.930000      0.105000     Biso  1.000000 H
   O1         1.0     0.612900      0.885600      0.051400     Biso  1.000000 O
   C2         1.0     0.406300      0.860300      0.189800     Biso  1.000000 C
   H1         1.0     0.368000      0.862700      0.229200     Biso  1.000000 H
   N1         1.0     0.967700      0.414300      0.684500     Biso  1.000000 N
   C2         1.0     0.906300      0.360300      0.689800     Biso  1.000000 C
   H1         1.0     0.868000      0.362700      0.729200     Biso  1.000000 H
   N1         1.0     0.532300      0.085700      0.184500     Biso  1.000000 N
   H2         1.0     0.410000      0.070000      0.105000     Biso  1.000000 H
   O1         1.0     0.387100      0.114400      0.051400     Biso  1.000000 O
   C2         1.0     0.593700      0.139700      0.189800     Biso  1.000000 C
   H1         1.0     0.632000      0.137300      0.229200     Biso  1.000000 H
   N1         1.0     0.032300      0.585700      0.684500     Biso  1.000000 N
   C2         1.0     0.093700      0.639700      0.689800     Biso  1.000000 C
   H1         1.0     0.132000      0.637300      0.729200     Biso  1.000000 H
   N1         1.0     0.467700      0.085700      0.815500     Biso  1.000000 N
   O1         1.0     0.612900      0.114400      0.948600     Biso  1.000000 O
   C2         1.0     0.406300      0.139700      0.810200     Biso  1.000000 C
   H1         1.0     0.368000      0.137300      0.770800     Biso  1.000000 H
   N1         1.0     0.967700      0.585700      0.315500     Biso  1.000000 N
   C2         1.0     0.906300      0.639700      0.310200     Biso  1.000000 C
   H1         1.0     0.868000      0.637300      0.270800     Biso  1.000000 H
   N1         1.0     0.532300      0.914300      0.815500     Biso  1.000000 N
   C2         1.0     0.593700      0.860300      0.810200     Biso  1.000000 C
   H1         1.0     0.632000      0.862700      0.770800     Biso  1.000000 H
   N1         1.0     0.032300      0.414300      0.315500     Biso  1.000000 N
   H2         1.0     0.910000      0.430000      0.395000     Biso  1.000000 H
   O1         1.0     0.887100      0.385600      0.448600     Biso  1.000000 O
   C2         1.0     0.093700      0.360300      0.310200     Biso  1.000000 C
   H1         1.0     0.132000      0.362700      0.270800     Biso  1.000000 H
   N1         1.0     0.914300      0.184500      0.467700     Biso  1.000000 N
   H2         1.0     0.930000      0.105000      0.590000     Biso  1.000000 H
   O1         1.0     0.885600      0.051400      0.612900     Biso  1.000000 O
   C2         1.0     0.860300      0.189800      0.406300     Biso  1.000000 C
   H1         1.0     0.862700      0.229200      0.368000     Biso  1.000000 H
   N1         1.0     0.414300      0.684500      0.967700     Biso  1.000000 N
   H2         1.0     0.430000      0.605000      0.090000     Biso  1.000000 H
   O1         1.0     0.385600      0.551400      0.112900     Biso  1.000000 O
   C2         1.0     0.360300      0.689800      0.906300     Biso  1.000000 C
   H1         1.0     0.362700      0.729200      0.868000     Biso  1.000000 H
   N1         1.0     0.085700      0.184500      0.532300     Biso  1.000000 N
   C2         1.0     0.139700      0.189800      0.593700     Biso  1.000000 C
   H1         1.0     0.137300      0.229200      0.632000     Biso  1.000000 H
   N1         1.0     0.585700      0.684500      0.032300     Biso  1.000000 N
   C2         1.0     0.639700      0.689800      0.093700     Biso  1.000000 C
   H1         1.0     0.637300      0.729200      0.132000     Biso  1.000000 H
   N1         1.0     0.085700      0.815500      0.467700     Biso  1.000000 N
   C2         1.0     0.139700      0.810200      0.406300     Biso  1.000000 C
   H1         1.0     0.137300      0.770800      0.368000     Biso  1.000000 H
   N1         1.0     0.585700      0.315500      0.967700     Biso  1.000000 N
   H2         1.0     0.570000      0.395000      0.090000     Biso  1.000000 H
   O1         1.0     0.614400      0.448600      0.112900     Biso  1.000000 O
   C2         1.0     0.639700      0.310200      0.906300     Biso  1.000000 C
   H1         1.0     0.637300      0.270800      0.868000     Biso  1.000000 H
   N1         1.0     0.914300      0.815500      0.532300     Biso  1.000000 N
   C2         1.0     0.860300      0.810200      0.593700     Biso  1.000000 C
   H1         1.0     0.862700      0.770800      0.632000     Biso  1.000000 H
   N1         1.0     0.414300      0.315500      0.032300     Biso  1.000000 N
   C2         1.0     0.360300      0.310200      0.093700     Biso  1.000000 C
   H1         1.0     0.362700      0.270800      0.132000     Biso  1.000000 H
   N1         1.0     0.184500      0.467700      0.914300     Biso  1.000000 N
   H2         1.0     0.105000      0.590000      0.930000     Biso  1.000000 H
   O1         1.0     0.051400      0.612900      0.885600     Biso  1.000000 O
   C2         1.0     0.189800      0.406300      0.860300     Biso  1.000000 C
   H1         1.0     0.229200      0.368000      0.862700     Biso  1.000000 H
   N1         1.0     0.684500      0.967700      0.414300     Biso  1.000000 N
   H2         1.0     0.605000      0.090000      0.430000     Biso  1.000000 H
   O1         1.0     0.551400      0.112900      0.385600     Biso  1.000000 O
   C2         1.0     0.689800      0.906300      0.360300     Biso  1.000000 C
   H1         1.0     0.729200      0.868000      0.362700     Biso  1.000000 H
   N1         1.0     0.184500      0.532300      0.085700     Biso  1.000000 N
   C2         1.0     0.189800      0.593700      0.139700     Biso  1.000000 C
   H1         1.0     0.229200      0.632000      0.137300     Biso  1.000000 H
   N1         1.0     0.684500      0.032300      0.585700     Biso  1.000000 N
   H2         1.0     0.605000      0.910000      0.570000     Biso  1.000000 H
   O1         1.0     0.551400      0.887100      0.614400     Biso  1.000000 O
   C2         1.0     0.689800      0.093700      0.639700     Biso  1.000000 C
   H1         1.0     0.729200      0.132000      0.637300     Biso  1.000000 H
   N1         1.0     0.815500      0.467700      0.085700     Biso  1.000000 N
   C2         1.0     0.810200      0.406300      0.139700     Biso  1.000000 C
   H1         1.0     0.770800      0.368000      0.137300     Biso  1.000000 H
   N1         1.0     0.315500      0.967700      0.585700     Biso  1.000000 N
   H2         1.0     0.395000      0.090000      0.570000     Biso  1.000000 H
   O1         1.0     0.448600      0.112900      0.614400     Biso  1.000000 O
   C2         1.0     0.310200      0.906300      0.639700     Biso  1.000000 C
   H1         1.0     0.270800      0.868000      0.637300     Biso  1.000000 H
   N1         1.0     0.815500      0.532300      0.914300     Biso  1.000000 N
   H2         1.0     0.895000      0.410000      0.930000     Biso  1.000000 H
   O1         1.0     0.948600      0.387100      0.885600     Biso  1.000000 O
   C2         1.0     0.810200      0.593700      0.860300     Biso  1.000000 C
   H1         1.0     0.770800      0.632000      0.862700     Biso  1.000000 H
   N1         1.0     0.315500      0.032300      0.414300     Biso  1.000000 N
   C2         1.0     0.310200      0.093700      0.360300     Biso  1.000000 C
   H1         1.0     0.270800      0.132000      0.362700     Biso  1.000000 H
   Zn1        1.0     0.000000      0.500000      0.250000     Biso  1.000000 Zn
   Zn1        1.0     0.000000      0.500000      0.750000     Biso  1.000000 Zn
   Zn1        1.0     0.250000      0.000000      0.500000     Biso  1.000000 Zn
   Zn1        1.0     0.750000      0.000000      0.500000     Biso  1.000000 Zn
   Zn1        1.0     0.500000      0.250000      0.000000     Biso  1.000000 Zn
   Zn1        1.0     0.500000      0.750000      0.000000     Biso  1.000000 Zn
   Zn1        1.0     0.500000      0.000000      0.250000     Biso  1.000000 Zn
   Zn1        1.0     0.500000      0.000000      0.750000     Biso  1.000000 Zn
   Zn1        1.0     0.000000      0.250000      0.500000     Biso  1.000000 Zn
   Zn1        1.0     0.000000      0.750000      0.500000     Biso  1.000000 Zn
   Zn1        1.0     0.250000      0.500000      0.000000     Biso  1.000000 Zn
   Zn1        1.0     0.750000      0.500000      0.000000     Biso  1.000000 Zn
   C1         1.0     0.874700      0.486700      0.125300     Biso  1.000000 C
   C3         1.0     0.897400      0.567400      0.102600     Biso  1.000000 C
   C1         1.0     0.374700      0.986700      0.625300     Biso  1.000000 C
   C3         1.0     0.397400      0.067400      0.602600     Biso  1.000000 C
   C1         1.0     0.125300      0.513300      0.125300     Biso  1.000000 C
   C3         1.0     0.102600      0.432600      0.102600     Biso  1.000000 C
   C1         1.0     0.625300      0.013300      0.625300     Biso  1.000000 C
   C3         1.0     0.602600      0.932600      0.602600     Biso  1.000000 C
   C1         1.0     0.125300      0.486700      0.874700     Biso  1.000000 C
   C3         1.0     0.102600      0.567400      0.897400     Biso  1.000000 C
   C1         1.0     0.625300      0.986700      0.374700     Biso  1.000000 C
   C3         1.0     0.602600      0.067400      0.397400     Biso  1.000000 C
   C1         1.0     0.874700      0.513300      0.874700     Biso  1.000000 C
   C3         1.0     0.897400      0.432600      0.897400     Biso  1.000000 C
   C1         1.0     0.374700      0.013300      0.374700     Biso  1.000000 C
   C3         1.0     0.397400      0.932600      0.397400     Biso  1.000000 C
   C1         1.0     0.125300      0.874700      0.486700     Biso  1.000000 C
   C3         1.0     0.102600      0.897400      0.567400     Biso  1.000000 C
   C1         1.0     0.625300      0.374700      0.986700     Biso  1.000000 C
   C3         1.0     0.602600      0.397400      0.067400     Biso  1.000000 C
   C1         1.0     0.125300      0.125300      0.513300     Biso  1.000000 C
   C3         1.0     0.102600      0.102600      0.432600     Biso  1.000000 C
   C1         1.0     0.625300      0.625300      0.013300     Biso  1.000000 C
   C3         1.0     0.602600      0.602600      0.932600     Biso  1.000000 C
   C1         1.0     0.874700      0.125300      0.486700     Biso  1.000000 C
   C3         1.0     0.897400      0.102600      0.567400     Biso  1.000000 C
   C1         1.0     0.374700      0.625300      0.986700     Biso  1.000000 C
   C3         1.0     0.397400      0.602600      0.067400     Biso  1.000000 C
   C1         1.0     0.874700      0.874700      0.513300     Biso  1.000000 C
   C3         1.0     0.897400      0.897400      0.432600     Biso  1.000000 C
   C1         1.0     0.374700      0.374700      0.013300     Biso  1.000000 C
   C3         1.0     0.397400      0.397400      0.932600     Biso  1.000000 C
   C1         1.0     0.486700      0.125300      0.874700     Biso  1.000000 C
   C3         1.0     0.567400      0.102600      0.897400     Biso  1.000000 C
   C1         1.0     0.986700      0.625300      0.374700     Biso  1.000000 C
   C3         1.0     0.067400      0.602600      0.397400     Biso  1.000000 C
   C1         1.0     0.513300      0.125300      0.125300     Biso  1.000000 C
   C3         1.0     0.432600      0.102600      0.102600     Biso  1.000000 C
   C1         1.0     0.013300      0.625300      0.625300     Biso  1.000000 C
   C3         1.0     0.932600      0.602600      0.602600     Biso  1.000000 C
   C1         1.0     0.486700      0.874700      0.125300     Biso  1.000000 C
   C3         1.0     0.567400      0.897400      0.102600     Biso  1.000000 C
   C1         1.0     0.986700      0.374700      0.625300     Biso  1.000000 C
   C3         1.0     0.067400      0.397400      0.602600     Biso  1.000000 C
   C1         1.0     0.513300      0.874700      0.874700     Biso  1.000000 C
   C3         1.0     0.432600      0.897400      0.897400     Biso  1.000000 C
   C1         1.0     0.013300      0.374700      0.374700     Biso  1.000000 C
   C3         1.0     0.932600      0.397400      0.397400     Biso  1.000000 C
